Version 4
SHEET 1 880 680
WIRE 352 48 272 48
WIRE 464 64 432 64
WIRE 608 64 592 64
WIRE 720 64 672 64
WIRE 144 96 128 96
WIRE 240 96 208 96
WIRE 272 96 272 48
WIRE 272 96 240 96
WIRE 464 96 464 64
WIRE 496 96 464 96
WIRE 592 112 592 64
WIRE 592 112 560 112
WIRE 496 128 464 128
WIRE 272 160 272 96
WIRE 352 160 272 160
WIRE 592 160 592 112
WIRE 608 160 592 160
WIRE 720 160 672 160
WIRE 464 176 464 128
WIRE 464 176 432 176
WIRE 272 256 272 160
WIRE 320 256 272 256
FLAG 64 96 CP
IOPIN 64 96 In
FLAG 240 96 CLK
FLAG 720 128 0
FLAG 720 224 0
FLAG 640 144 vdd
FLAG 560 208 vdd
FLAG 640 176 0
FLAG 352 80 RD_n
FLAG 352 192 SD_n
FLAG 560 288 0
SYMBOL NAND2 384 64 R0
SYMATTR SpiceLine size = 1.21277
SYMATTR InstName X1
SYMBOL NAND2 384 176 R0
SYMATTR SpiceLine size = 1.21277
SYMATTR InstName X2
SYMBOL NOR2 528 112 R0
SYMATTR InstName X3
SYMATTR SpiceLine size = 1.78723
SYMBOL INV 640 64 R0
SYMATTR InstName X4
SYMBOL TG 640 160 R0
SYMATTR InstName X5
SYMBOL cap 704 64 R0
SYMATTR InstName C1
SYMATTR Value 4C_min
SYMBOL cap 704 160 R0
SYMATTR InstName C2
SYMATTR Value 4C_min
SYMBOL voltage 560 192 R0
WINDOW 123 0 0 Left 0
WINDOW 39 0 0 Left 0
SYMATTR InstName V1
SYMATTR Value 3.3
SYMBOL INV 96 96 R0
SYMATTR InstName X6
SYMBOL INV 176 96 R0
SYMATTR InstName X7
SYMATTR SpiceLine size = 4
TEXT 304 256 Left 2 ;... 14 more
