Version 4
SHEET 1 1292 680
WIRE 752 -48 688 -48
WIRE 1056 -32 1024 -32
WIRE -64 64 -96 64
WIRE 32 80 16 80
WIRE -64 96 -96 96
WIRE 144 96 128 96
WIRE 32 112 32 80
WIRE 48 112 32 112
WIRE 736 112 688 112
WIRE 128 128 128 96
WIRE 128 128 112 128
WIRE 1056 128 1040 128
WIRE 48 144 32 144
WIRE -64 160 -96 160
WIRE 32 176 32 144
WIRE 32 176 16 176
WIRE -64 192 -96 192
WIRE 128 208 128 128
WIRE 224 208 192 208
WIRE 464 272 448 272
WIRE 576 272 528 272
WIRE 672 272 640 272
WIRE 800 272 784 272
WIRE 896 272 864 272
WIRE 992 272 960 272
WIRE 736 288 736 112
WIRE 752 288 752 -48
WIRE 752 288 736 288
WIRE 784 288 784 272
WIRE 784 288 752 288
WIRE 992 288 992 272
WIRE 1024 288 1024 -32
WIRE 1024 288 992 288
WIRE 1040 288 1040 128
WIRE 1040 288 1024 288
WIRE 352 384 320 384
WIRE 448 384 448 272
WIRE 448 384 416 384
WIRE 528 384 448 384
WIRE 672 384 672 272
WIRE 672 384 592 384
WIRE 688 384 672 384
WIRE 784 384 784 288
WIRE 784 384 752 384
WIRE 848 384 784 384
WIRE 992 384 992 288
WIRE 992 384 912 384
WIRE 1008 384 992 384
WIRE 1104 384 1072 384
WIRE 784 464 784 384
WIRE 1008 464 784 464
WIRE 1104 464 1072 464
FLAG -64 -80 CP
IOPIN -64 -80 In
FLAG -64 -112 D
IOPIN -64 -112 In
FLAG -64 -48 SD_n
IOPIN -64 -48 In
FLAG -64 -16 RD_n
IOPIN -64 -16 In
FLAG -32 -112 Q
IOPIN -32 -112 Out
FLAG -32 -80 Q_n
IOPIN -32 -80 Out
FLAG -96 64 CP
IOPIN -96 64 In
FLAG -96 96 RD_n
IOPIN -96 96 In
FLAG -96 160 CP
IOPIN -96 160 In
FLAG -96 192 SD_n
IOPIN -96 192 In
FLAG 208 96 CK_n
FLAG 320 384 D
IOPIN 320 384 In
FLAG 1104 464 Q
IOPIN 1104 464 Out
FLAG 1104 384 Q_n
IOPIN 1104 384 Out
FLAG 384 368 CK_n
FLAG 496 288 CK_n
FLAG 720 400 CK_n
FLAG 832 256 CK_n
FLAG -64 448 RD_n
IOPIN -64 448 In
FLAG -64 528 SD_n
IOPIN -64 528 In
FLAG 0 448 RD
FLAG 0 528 SD
FLAG 96 16 0
FLAG 96 -64 vdd
FLAG 624 -48 vdd
FLAG 1120 -32 vdd
FLAG 624 112 0
FLAG 1120 128 0
FLAG 1088 -48 SD_n
IOPIN 1088 -48 In
FLAG 656 128 SD_n
IOPIN 656 128 In
FLAG 656 96 SD
FLAG 1088 -16 SD
FLAG 656 -32 RD_n
IOPIN 656 -32 In
FLAG 1088 112 RD_n
IOPIN 1088 112 In
FLAG 656 -64 RD
FLAG 1088 144 RD
FLAG 160 192 vdd
FLAG 160 224 0
FLAG 224 208 CK
FLAG 384 400 CK
FLAG 496 256 CK
FLAG 720 368 CK
FLAG 832 288 CK
SYMBOL NAND2 -32 80 R0
SYMATTR InstName X1
SYMATTR SpiceLine size = 1.21277
SYMBOL NAND2 -32 176 R0
SYMATTR InstName X2
SYMATTR SpiceLine size = 1.21277
SYMBOL NOR2 80 128 R0
SYMATTR InstName X3
SYMATTR SpiceLine size = 1.78723
SYMBOL TG 384 384 R0
SYMATTR InstName X5
SYMBOL TG 496 272 R0
SYMATTR InstName X6
SYMBOL INV 560 384 R0
SYMATTR InstName X7
SYMBOL INV 608 272 R180
SYMATTR InstName X8
SYMBOL TG 720 384 R0
SYMATTR InstName X9
SYMBOL TG 832 272 R0
SYMATTR InstName X10
SYMBOL INV 880 384 R0
SYMATTR InstName X11
SYMBOL INV 928 272 R180
SYMATTR InstName X12
SYMBOL INV 1040 384 R0
SYMATTR InstName X13
SYMBOL INV 1040 464 R0
SYMATTR InstName X14
SYMBOL INV -32 448 R0
SYMATTR InstName X15
SYMBOL INV -32 528 R0
SYMATTR InstName X16
SYMBOL TG 656 -48 R0
SYMATTR InstName X17
SYMBOL TG 656 112 R0
SYMATTR InstName X18
SYMBOL TG 1088 -32 R180
SYMATTR InstName X19
SYMBOL TG 1088 128 R180
SYMATTR InstName X20
SYMBOL voltage 96 -80 R0
WINDOW 123 0 0 Left 0
WINDOW 39 0 0 Left 0
SYMATTR InstName V1
SYMATTR Value 3.3
SYMBOL INV 176 96 R0
SYMATTR InstName X4
SYMBOL TG 160 208 R0
SYMATTR InstName X21
