Version 4
SHEET 1 1292 712
WIRE 752 -48 688 -48
WIRE 1056 -32 1024 -32
WIRE 0 32 -32 32
WIRE -32 48 -32 32
WIRE -64 64 -96 64
WIRE 320 64 288 64
WIRE 80 80 16 80
WIRE 144 80 112 80
WIRE 288 80 288 64
WIRE -64 96 -96 96
WIRE 112 96 112 80
WIRE 272 96 256 96
WIRE 80 112 80 80
WIRE 96 112 80 112
WIRE 736 112 688 112
WIRE -32 128 -32 112
WIRE 0 128 -32 128
WIRE 256 128 256 96
WIRE 256 128 160 128
WIRE 288 128 288 112
WIRE 320 128 288 128
WIRE 1056 128 1040 128
WIRE 96 144 80 144
WIRE 112 176 112 160
WIRE 144 176 112 176
WIRE 0 208 -32 208
WIRE -32 224 -32 208
WIRE -64 240 -96 240
WIRE 256 240 256 128
WIRE 352 240 320 240
WIRE 624 240 592 240
WIRE 944 240 912 240
WIRE 80 256 80 144
WIRE 80 256 16 256
WIRE 624 256 624 240
WIRE 944 256 944 240
WIRE -64 272 -96 272
WIRE 464 272 448 272
WIRE 576 272 528 272
WIRE 672 272 640 272
WIRE 800 272 784 272
WIRE 896 272 864 272
WIRE 992 272 960 272
WIRE 736 288 736 112
WIRE 752 288 752 -48
WIRE 752 288 736 288
WIRE 784 288 784 272
WIRE 784 288 752 288
WIRE 992 288 992 272
WIRE 1024 288 1024 -32
WIRE 1024 288 992 288
WIRE 1040 288 1040 128
WIRE 1040 288 1024 288
WIRE -32 304 -32 288
WIRE 0 304 -32 304
WIRE 624 304 624 288
WIRE 624 304 592 304
WIRE 944 304 944 288
WIRE 944 304 912 304
WIRE 576 352 544 352
WIRE 896 352 864 352
WIRE 1056 352 1024 352
WIRE 544 368 544 352
WIRE 864 368 864 352
WIRE 1024 368 1024 352
WIRE 352 384 320 384
WIRE 448 384 448 272
WIRE 448 384 416 384
WIRE 528 384 448 384
WIRE 672 384 672 272
WIRE 672 384 592 384
WIRE 688 384 672 384
WIRE 784 384 784 288
WIRE 784 384 752 384
WIRE 848 384 784 384
WIRE 992 384 992 288
WIRE 992 384 912 384
WIRE 1008 384 992 384
WIRE 1104 384 1072 384
WIRE -16 416 -48 416
WIRE 544 416 544 400
WIRE 576 416 544 416
WIRE 864 416 864 400
WIRE 896 416 864 416
WIRE 1024 416 1024 400
WIRE 1056 416 1024 416
WIRE -48 432 -48 416
WIRE 1056 464 1024 464
WIRE -48 480 -48 464
WIRE -16 480 -48 480
WIRE 1024 480 1024 464
WIRE 784 496 784 384
WIRE 1008 496 784 496
WIRE 1104 496 1072 496
WIRE 1024 528 1024 512
WIRE 1056 528 1024 528
WIRE -16 576 -48 576
WIRE -48 592 -48 576
WIRE -48 640 -48 624
WIRE -16 640 -48 640
FLAG -64 -80 CP
IOPIN -64 -80 In
FLAG -64 -112 D
IOPIN -64 -112 In
FLAG -64 -48 SD_n
IOPIN -64 -48 In
FLAG -64 -16 RD_n
IOPIN -64 -16 In
FLAG -32 -112 Q
IOPIN -32 -112 Out
FLAG -32 -80 Q_n
IOPIN -32 -80 Out
FLAG -96 64 CP
IOPIN -96 64 In
FLAG -96 96 RD_n
IOPIN -96 96 In
FLAG -96 240 CP
IOPIN -96 240 In
FLAG -96 272 SD_n
IOPIN -96 272 In
FLAG 336 96 CK_n
FLAG 320 384 D
IOPIN 320 384 In
FLAG 1104 496 Q
IOPIN 1104 496 Out
FLAG 1104 384 Q_n
IOPIN 1104 384 Out
FLAG 384 368 CK_n
FLAG 496 288 CK_n
FLAG 720 400 CK_n
FLAG 832 256 CK_n
FLAG -64 448 RD_n
IOPIN -64 448 In
FLAG -64 608 SD_n
IOPIN -64 608 In
FLAG 0 448 RD
FLAG 0 608 SD
FLAG 1088 -48 SD_n
IOPIN 1088 -48 In
FLAG 656 128 SD_n
IOPIN 656 128 In
FLAG 656 96 SD
FLAG 1088 -16 SD
FLAG 656 -32 RD_n
IOPIN 656 -32 In
FLAG 1088 112 RD_n
IOPIN 1088 112 In
FLAG 656 -64 RD
FLAG 1088 144 RD
FLAG 352 240 CK
FLAG 384 400 CK
FLAG 496 256 CK
FLAG 720 368 CK
FLAG 832 288 CK
FLAG -32 -16 Vdd
IOPIN -32 -16 BiDir
FLAG -32 -48 GND
IOPIN -32 -48 BiDir
FLAG 624 -48 Vdd
IOPIN 624 -48 BiDir
FLAG 1120 -32 Vdd
IOPIN 1120 -32 BiDir
FLAG 624 112 GND
IOPIN 624 112 BiDir
FLAG 1120 128 GND
IOPIN 1120 128 BiDir
FLAG 288 224 Vdd
IOPIN 288 224 BiDir
FLAG 288 256 GND
IOPIN 288 256 BiDir
FLAG 320 64 Vdd
IOPIN 320 64 BiDir
FLAG -16 416 Vdd
IOPIN -16 416 BiDir
FLAG -16 576 Vdd
IOPIN -16 576 BiDir
FLAG -16 480 GND
IOPIN -16 480 BiDir
FLAG -16 640 GND
IOPIN -16 640 BiDir
FLAG 320 128 GND
IOPIN 320 128 BiDir
FLAG 592 240 GND
IOPIN 592 240 BiDir
FLAG 576 416 GND
IOPIN 576 416 BiDir
FLAG 896 416 GND
IOPIN 896 416 BiDir
FLAG 912 240 GND
IOPIN 912 240 BiDir
FLAG 1056 416 GND
IOPIN 1056 416 BiDir
FLAG 1056 528 GND
IOPIN 1056 528 BiDir
FLAG 592 304 Vdd
IOPIN 592 304 BiDir
FLAG 576 352 Vdd
IOPIN 576 352 BiDir
FLAG 896 352 Vdd
IOPIN 896 352 BiDir
FLAG 1056 352 Vdd
IOPIN 1056 352 BiDir
FLAG 1056 464 Vdd
IOPIN 1056 464 BiDir
FLAG 912 304 Vdd
IOPIN 912 304 BiDir
FLAG 0 32 Vdd
IOPIN 0 32 BiDir
FLAG 144 80 Vdd
IOPIN 144 80 BiDir
FLAG 144 176 GND
IOPIN 144 176 BiDir
FLAG 0 208 Vdd
IOPIN 0 208 BiDir
FLAG 0 128 GND
IOPIN 0 128 BiDir
FLAG 0 304 GND
IOPIN 0 304 BiDir
SYMBOL NAND2 -32 80 R0
SYMATTR InstName X1
SYMATTR SpiceLine size = 1.21277
SYMBOL NAND2 -32 256 R0
SYMATTR InstName X2
SYMATTR SpiceLine size = 1.21277
SYMBOL TG 384 384 R0
SYMATTR InstName X5
SYMBOL TG 496 272 R0
SYMATTR InstName X6
SYMBOL INV 560 384 R0
SYMATTR InstName X7
SYMBOL INV 608 272 R180
SYMATTR InstName X8
SYMBOL TG 720 384 R0
SYMATTR InstName X9
SYMBOL TG 832 272 R0
SYMATTR InstName X10
SYMBOL INV 880 384 R0
SYMATTR InstName X11
SYMBOL INV 928 272 R180
SYMATTR InstName X12
SYMBOL INV 1040 384 R0
SYMATTR InstName X13
SYMBOL INV 1040 496 R0
SYMATTR InstName X14
SYMBOL INV -32 448 R0
SYMATTR InstName X15
SYMBOL INV -32 608 R0
SYMATTR InstName X16
SYMBOL TG 656 -48 R0
SYMATTR InstName X17
SYMBOL TG 656 112 R0
SYMATTR InstName X18
SYMBOL TG 1088 -32 R180
SYMATTR InstName X19
SYMBOL TG 1088 128 R180
SYMATTR InstName X20
SYMBOL INV 304 96 R0
SYMATTR InstName X4
SYMBOL TG 288 240 R0
SYMATTR InstName X21
SYMBOL NOR2 128 128 R0
SYMATTR InstName X3
SYMATTR SpiceLine size = 1.78723
