Version 4
SHEET 1 880 680
WIRE 208 0 208 -16
WIRE 256 0 208 0
WIRE 208 16 208 0
WIRE 160 64 128 64
WIRE 256 64 256 0
WIRE 256 64 208 64
WIRE 128 128 128 64
WIRE 128 128 96 128
WIRE 208 128 208 112
WIRE 288 128 208 128
WIRE 208 144 208 128
WIRE 128 192 128 128
WIRE 160 192 128 192
WIRE 272 192 208 192
WIRE 208 256 208 240
WIRE 272 256 272 192
WIRE 272 256 208 256
WIRE 208 272 208 256
FLAG -64 160 0
FLAG -64 80 vdd
FLAG 208 272 0
FLAG 208 -16 vdd
FLAG 96 128 I
IOPIN 96 128 In
FLAG 288 128 O
IOPIN 288 128 Out
SYMBOL nmos_035 160 144 R0
SYMATTR InstName M1
SYMATTR Value2 l=0.35u w={0.35u*size}
SYMATTR SpiceLine ""
SYMBOL pmos_035 160 16 R0
SYMATTR InstName M2
SYMATTR Value2 l=0.35u w={3.7*size*0.35u}
SYMATTR SpiceLine ""
SYMBOL voltage -64 64 R0
WINDOW 123 0 0 Left 0
WINDOW 39 0 0 Left 0
SYMATTR InstName V1
SYMATTR Value 3.3
TEXT 312 -32 Left 2 !.include ee457_035.lib\n.param size=1
