Version 4
SHEET 1 880 820
WIRE -128 96 -176 96
WIRE 0 96 -128 96
WIRE 16 96 0 96
WIRE 48 96 16 96
WIRE 176 96 48 96
WIRE 224 96 176 96
WIRE -176 128 -176 96
WIRE 0 128 0 96
WIRE 176 128 176 96
WIRE -128 176 -128 96
WIRE -128 176 -176 176
WIRE 48 176 48 96
WIRE 48 176 0 176
WIRE 224 176 224 96
WIRE 224 176 176 176
WIRE -176 240 -176 224
WIRE 0 240 0 224
WIRE 0 240 -176 240
WIRE 176 240 176 224
WIRE 176 240 0 240
WIRE 0 272 0 240
WIRE 320 272 0 272
WIRE 0 304 0 272
WIRE 208 352 0 352
WIRE 0 448 0 400
WIRE 208 496 208 352
WIRE 208 496 0 496
WIRE 0 592 0 544
WIRE 208 640 208 496
WIRE 208 640 0 640
WIRE 0 704 0 688
WIRE 208 704 208 640
WIRE 208 704 0 704
WIRE 0 720 0 704
WIRE 0 0 0 0
FLAG 0 720 0
FLAG -208 400 0
FLAG -208 320 vdd
FLAG 16 96 vdd
FLAG -224 176 I1
IOPIN -224 176 In
FLAG -48 352 I1
IOPIN -48 352 In
FLAG -48 176 I2
IOPIN -48 176 In
FLAG -48 496 I2
IOPIN -48 496 In
FLAG -48 640 I3
IOPIN -48 640 In
FLAG 128 176 I3
IOPIN 128 176 In
FLAG 320 272 O
IOPIN 320 272 Out
SYMBOL nmos_035 -48 592 R0
SYMATTR InstName M1
SYMATTR Value2 l=0.35u w={size*0.35u}
SYMATTR SpiceLine ""
SYMBOL nmos_035 -48 448 R0
SYMATTR InstName M2
SYMATTR Value2 l=0.35u w={size*0.35u}
SYMATTR SpiceLine ""
SYMBOL nmos_035 -48 304 R0
SYMATTR InstName M3
SYMATTR Value2 l=0.35u w={size*0.35u}
SYMATTR SpiceLine ""
SYMBOL pmos_035 -224 128 R0
SYMATTR InstName M4
SYMATTR Value2 l=0.35u w={3.4*size*0.35u}
SYMATTR SpiceLine ""
SYMBOL pmos_035 -48 128 R0
SYMATTR InstName M5
SYMATTR Value2 l=0.35u w={3.4*size*0.35u}
SYMATTR SpiceLine ""
SYMBOL pmos_035 128 128 R0
SYMATTR InstName M6
SYMATTR Value2 l=0.35u w={3.4*size*0.35u}
SYMATTR SpiceLine ""
SYMBOL voltage -208 304 R0
WINDOW 123 0 0 Left 0
WINDOW 39 0 0 Left 0
SYMATTR InstName V1
SYMATTR Value 3.3
TEXT -304 560 Left 2 !.include ee457_035.lib\n.param size=1
