Version 4
SHEET 1 880 680
WIRE 320 16 272 16
WIRE 368 16 320 16
WIRE 432 16 368 16
WIRE 480 16 432 16
WIRE 272 48 272 16
WIRE 432 48 432 16
WIRE 320 96 320 16
WIRE 320 96 272 96
WIRE 480 96 480 16
WIRE 480 96 432 96
WIRE 352 144 272 144
WIRE 432 144 352 144
WIRE 352 160 352 144
WIRE 544 160 352 160
WIRE 352 176 352 160
WIRE 512 224 352 224
WIRE 352 304 352 272
WIRE 512 352 512 224
WIRE 512 352 352 352
WIRE 352 416 352 400
WIRE 512 416 512 352
WIRE 512 416 352 416
WIRE 352 432 352 416
FLAG 0 256 0
FLAG 352 432 0
FLAG 0 176 vdd
FLAG 368 16 vdd
FLAG 224 96 I1
IOPIN 224 96 In
FLAG 304 224 I1
IOPIN 304 224 In
FLAG 384 96 I2
IOPIN 384 96 In
FLAG 304 352 I2
IOPIN 304 352 In
FLAG 544 160 O
IOPIN 544 160 Out
SYMBOL voltage 0 160 R0
WINDOW 123 0 0 Left 0
WINDOW 39 0 0 Left 0
SYMATTR InstName V1
SYMATTR Value 3.3
SYMBOL nmos_035 304 176 R0
SYMATTR InstName M1
SYMATTR Value2 l=0.35u w={size*0.35u}
SYMATTR SpiceLine ""
SYMBOL nmos_035 304 304 R0
SYMATTR InstName M2
SYMATTR Value2 l=0.35u w={size*0.35u}
SYMATTR SpiceLine ""
SYMBOL pmos_035 224 48 R0
SYMATTR InstName M3
SYMATTR Value2 l=0.35u w={3.7*size*0.35u}
SYMATTR SpiceLine ""
SYMBOL pmos_035 384 48 R0
SYMATTR InstName M4
SYMATTR Value2 l=0.35u w={3.7*size*0.35u}
SYMATTR SpiceLine ""
TEXT 512 48 Left 2 !.include ee457_035.lib\n.param size=1
