Version 4
SHEET 1 880 680
TEXT 512 48 Left 2 !.include ee457_035.lib\n.param size=1
