Version 4
SHEET 1 880 680
WIRE 256 -288 256 -304
WIRE 336 -288 256 -288
WIRE 256 -272 256 -288
WIRE 336 -224 336 -288
WIRE 336 -224 256 -224
WIRE 256 -128 256 -176
WIRE 336 -80 336 -224
WIRE 336 -80 256 -80
WIRE 256 -16 256 -32
WIRE 432 -16 256 -16
WIRE 256 0 256 -16
WIRE 256 0 128 0
WIRE 400 0 256 0
WIRE 128 32 128 0
WIRE 400 32 400 0
WIRE 208 80 128 80
WIRE 480 80 400 80
WIRE 128 144 128 128
WIRE 208 144 208 80
WIRE 208 144 128 144
WIRE 400 144 400 128
WIRE 480 144 480 80
WIRE 480 144 400 144
WIRE 128 160 128 144
WIRE 400 160 400 144
FLAG 128 160 0
FLAG 400 160 0
FLAG -80 80 0
FLAG -80 0 vdd
FLAG 256 -304 vdd
FLAG 80 80 I1
IOPIN 80 80 In
FLAG 208 -224 I1
IOPIN 208 -224 In
FLAG 208 -80 I2
IOPIN 208 -80 In
FLAG 352 80 I2
IOPIN 352 80 In
FLAG 432 -16 O
IOPIN 432 -16 Out
SYMBOL nmos_035 80 32 R0
SYMATTR InstName M1
SYMATTR Value2 l=0.35u w={size*0.35u}
SYMATTR SpiceLine ""
SYMBOL nmos_035 352 32 R0
SYMATTR InstName M2
SYMATTR Value2 l=0.35u w={size*0.35u}
SYMATTR SpiceLine ""
SYMBOL pmos_035 208 -128 R0
SYMATTR InstName M3
SYMATTR Value2 l=0.35u w={3.4*size*0.35u}
SYMATTR SpiceLine ""
SYMBOL pmos_035 208 -272 R0
SYMATTR InstName M4
SYMATTR Value2 l=0.35u w={3.4*size*0.35u}
SYMATTR SpiceLine ""
SYMBOL voltage -80 -16 R0
WINDOW 123 0 0 Left 0
WINDOW 39 0 0 Left 0
SYMATTR InstName V1
SYMATTR Value 3.3
TEXT -152 -152 Left 2 !.include ee457_035.lib\n.param size = 1
