Version 4
SHEET 1 880 680
WIRE 368 -64 112 -64
WIRE 608 -64 368 -64
WIRE 640 -48 288 -48
WIRE 112 -32 112 -64
WIRE 160 -32 112 -32
WIRE 368 -32 368 -64
WIRE 416 -32 368 -32
WIRE 608 -32 608 -64
WIRE 656 -32 608 -32
WIRE 112 -16 112 -32
WIRE 368 -16 368 -32
WIRE 608 -16 608 -32
WIRE 64 32 32 32
WIRE 160 32 160 -32
WIRE 160 32 112 32
WIRE 288 32 288 -48
WIRE 320 32 288 32
WIRE 416 32 416 -32
WIRE 416 32 368 32
WIRE 560 32 544 32
WIRE 656 32 656 -32
WIRE 656 32 608 32
WIRE 32 96 32 32
WIRE 32 96 0 96
WIRE 112 96 112 80
WIRE 368 96 368 80
WIRE 368 96 112 96
WIRE 544 96 544 32
WIRE 544 96 368 96
WIRE 608 96 608 80
WIRE 640 96 640 -48
WIRE 640 96 608 96
WIRE 688 96 640 96
WIRE 112 128 112 96
WIRE 368 128 368 96
WIRE 608 128 608 96
WIRE 32 176 32 96
WIRE 64 176 32 176
WIRE 144 176 112 176
WIRE 320 176 288 176
WIRE 400 176 368 176
WIRE 544 176 544 96
WIRE 560 176 544 176
WIRE 656 176 608 176
WIRE 112 240 112 224
WIRE 144 240 144 176
WIRE 144 240 112 240
WIRE 368 240 368 224
WIRE 400 240 400 176
WIRE 400 240 368 240
WIRE 608 240 608 224
WIRE 656 240 656 176
WIRE 656 240 608 240
WIRE 288 256 288 176
WIRE 640 256 640 96
WIRE 640 256 288 256
WIRE 112 272 112 240
WIRE 368 272 368 240
WIRE 368 272 112 272
WIRE 608 272 608 240
WIRE 608 272 368 272
FLAG 0 96 I
IOPIN 0 96 In
FLAG 688 96 O
IOPIN 688 96 Out
FLAG 368 -64 Vdd
IOPIN 368 -64 BiDir
FLAG 368 272 GND
IOPIN 368 272 BiDir
FLAG 0 0 GND
IOPIN 0 0 BiDir
SYMBOL nmos_035 64 128 R0
SYMATTR InstName M1
SYMATTR Value2 l=0.35u w={10*0.35u}
SYMATTR SpiceLine ""
SYMBOL pmos_035 64 -16 R0
SYMATTR InstName M2
SYMATTR Value2 l=0.35u w={3.7*10*0.35u}
SYMATTR SpiceLine ""
SYMBOL nmos_035 320 128 R0
SYMATTR InstName M3
SYMATTR Value2 l=0.35u w=0.35u
SYMATTR SpiceLine ""
SYMBOL pmos_035 320 -16 R0
SYMATTR InstName M4
SYMATTR Value2 l=0.35u w={5*3.7*0.35u}
SYMATTR SpiceLine ""
SYMBOL nmos_035 560 128 R0
SYMATTR InstName M5
SYMATTR Value2 l=0.35u w={5*0.35u}
SYMATTR SpiceLine ""
SYMBOL pmos_035 560 -16 R0
SYMATTR InstName M6
SYMATTR Value2 l=0.35u w={3.7*0.35u}
SYMATTR SpiceLine ""
TEXT -216 -48 Left 2 !.include ee457_035.lib\n.op
