Version 4
SHEET 1 2296 708
WIRE 64 -576 64 -592
WIRE 240 -576 240 -592
WIRE 416 -576 416 -592
WIRE 592 -576 592 -592
WIRE 64 -496 64 -512
WIRE 112 -496 64 -496
WIRE 240 -496 240 -512
WIRE 288 -496 240 -496
WIRE 416 -496 416 -512
WIRE 464 -496 416 -496
WIRE 592 -496 592 -512
WIRE 640 -496 592 -496
WIRE 64 -480 64 -496
WIRE 240 -480 240 -496
WIRE 416 -480 416 -496
WIRE 592 -480 592 -496
WIRE 48 -384 48 -400
WIRE 224 -384 224 -400
WIRE 400 -384 400 -400
WIRE 576 -384 576 -400
WIRE -80 -352 -96 -352
WIRE 0 -352 -16 -352
WIRE 176 -352 96 -352
WIRE 352 -352 272 -352
WIRE 528 -352 448 -352
WIRE 688 -352 624 -352
WIRE 0 -320 -16 -320
WIRE 176 -320 160 -320
WIRE 352 -320 336 -320
WIRE 528 -320 512 -320
WIRE 48 -272 48 -288
WIRE 224 -272 224 -288
WIRE 400 -272 400 -288
WIRE 576 -272 576 -288
WIRE 32 -176 32 -192
WIRE 32 -176 16 -176
WIRE 64 -176 64 -192
WIRE 208 -176 208 -192
WIRE 208 -176 192 -176
WIRE 240 -176 240 -192
WIRE 384 -176 384 -192
WIRE 384 -176 368 -176
WIRE 416 -176 416 -192
WIRE 560 -176 560 -192
WIRE 560 -176 544 -176
WIRE 592 -176 592 -192
WIRE 16 -144 16 -176
WIRE 192 -144 192 -176
WIRE 368 -144 368 -176
WIRE 544 -144 544 -176
WIRE 64 -96 64 -112
WIRE 112 -96 112 -496
WIRE 112 -96 64 -96
WIRE 240 -96 240 -112
WIRE 288 -96 288 -496
WIRE 288 -96 240 -96
WIRE 416 -96 416 -112
WIRE 464 -96 464 -496
WIRE 464 -96 416 -96
WIRE 592 -96 592 -112
WIRE 640 -96 640 -496
WIRE 640 -96 592 -96
WIRE -64 -48 -80 -48
WIRE 16 -48 0 -48
WIRE 16 -16 -80 -16
WIRE 144 -16 96 -16
WIRE 16 16 -80 16
WIRE -64 96 -80 96
WIRE 144 96 0 96
WIRE 64 192 64 176
WIRE 240 192 240 176
WIRE 416 192 416 176
WIRE 592 192 592 176
WIRE 64 272 64 256
WIRE 112 272 64 272
WIRE 240 272 240 256
WIRE 288 272 240 272
WIRE 416 272 416 256
WIRE 464 272 416 272
WIRE 592 272 592 256
WIRE 640 272 592 272
WIRE 64 288 64 272
WIRE 240 288 240 272
WIRE 416 288 416 272
WIRE 592 288 592 272
WIRE 48 384 48 368
WIRE 224 384 224 368
WIRE 400 384 400 368
WIRE 576 384 576 368
WIRE 0 416 -64 416
WIRE 176 416 96 416
WIRE 352 416 272 416
WIRE 528 416 448 416
WIRE 656 416 624 416
WIRE 0 448 -16 448
WIRE 176 448 160 448
WIRE 352 448 336 448
WIRE 528 448 512 448
WIRE 656 448 624 448
WIRE 48 496 48 480
WIRE 224 496 224 480
WIRE 400 496 400 480
WIRE 576 496 576 480
WIRE 32 592 32 576
WIRE 32 592 16 592
WIRE 64 592 64 576
WIRE 208 592 208 576
WIRE 208 592 192 592
WIRE 240 592 240 576
WIRE 384 592 384 576
WIRE 384 592 368 592
WIRE 416 592 416 576
WIRE 560 592 560 576
WIRE 560 592 544 592
WIRE 592 592 592 576
WIRE 16 624 16 592
WIRE 192 624 192 592
WIRE 368 624 368 592
WIRE 544 624 544 592
WIRE 64 672 64 656
WIRE 112 672 112 272
WIRE 112 672 64 672
WIRE 240 672 240 656
WIRE 288 672 288 272
WIRE 288 672 240 672
WIRE 416 672 416 656
WIRE 464 672 464 272
WIRE 464 672 416 672
WIRE 592 672 592 656
WIRE 640 672 640 272
WIRE 640 672 592 672
FLAG -512 -544 PL_n
IOPIN -512 -544 In
FLAG -512 -496 CP
IOPIN -512 -496 In
FLAG -512 -448 D4
IOPIN -512 -448 In
FLAG -512 -400 D5
IOPIN -512 -400 In
FLAG -512 -352 D6
IOPIN -512 -352 In
FLAG -512 -304 D7
IOPIN -512 -304 In
FLAG -512 -256 Q7_n
IOPIN -512 -256 Out
FLAG -512 -208 GND
IOPIN -512 -208 BiDir
FLAG -368 -544 VCC
IOPIN -368 -544 BiDir
FLAG -368 -496 CE_n
IOPIN -368 -496 In
FLAG -368 -448 D3
IOPIN -368 -448 In
FLAG -368 -400 D2
IOPIN -368 -400 In
FLAG -368 -352 D1
IOPIN -368 -352 In
FLAG -368 -304 D0
IOPIN -368 -304 In
FLAG -368 -256 DS
IOPIN -368 -256 In
FLAG -368 -208 Q7
IOPIN -368 -208 Out
FLAG 688 -352 Q3
FLAG -64 416 Q3
FLAG -96 -352 DS
IOPIN -96 -352 In
FLAG 64 -592 D0
IOPIN 64 -592 In
FLAG 240 -592 D1
IOPIN 240 -592 In
FLAG 416 -592 D2
IOPIN 416 -592 In
FLAG 592 -592 D3
IOPIN 592 -592 In
FLAG 64 176 D4
IOPIN 64 176 In
FLAG 240 176 D5
IOPIN 240 176 In
FLAG 416 176 D6
IOPIN 416 176 In
FLAG 592 176 D7
IOPIN 592 176 In
FLAG 656 448 Q7_n
IOPIN 656 448 Out
FLAG 656 416 Q7
IOPIN 656 416 Out
FLAG -80 96 PL_n
IOPIN -80 96 In
FLAG -80 16 CP
IOPIN -80 16 In
FLAG -80 -48 CE_n
IOPIN -80 -48 In
FLAG 144 -16 CLK
FLAG -16 -320 CLK
FLAG 160 -320 CLK
FLAG 336 -320 CLK
FLAG 512 -320 CLK
FLAG -16 448 CLK
FLAG 160 448 CLK
FLAG 336 448 CLK
FLAG 512 448 CLK
FLAG -80 -16 PL_n
IOPIN -80 -16 In
FLAG 144 96 PL
FLAG 16 624 PL
FLAG 192 624 PL
FLAG 368 624 PL
FLAG 544 624 PL
FLAG 560 288 PL
FLAG 384 288 PL
FLAG 208 288 PL
FLAG 32 288 PL
FLAG 32 -480 PL
FLAG 208 -480 PL
FLAG 384 -480 PL
FLAG 560 -480 PL
FLAG 16 -144 PL
FLAG 192 -144 PL
FLAG 368 -144 PL
FLAG 544 -144 PL
SYMBOL D-FF 48 -336 R0
WINDOW 0 7 54 Left 0
SYMATTR InstName X1
SYMBOL D-FF 224 -336 R0
WINDOW 0 7 54 Left 0
SYMATTR InstName X2
SYMBOL D-FF 400 -336 R0
WINDOW 0 7 54 Left 0
SYMATTR InstName X3
SYMBOL D-FF 576 -336 R0
WINDOW 0 7 54 Left 0
SYMATTR InstName X4
SYMBOL D-FF 48 432 R0
WINDOW 0 7 54 Left 0
SYMATTR InstName X5
SYMBOL D-FF 224 432 R0
WINDOW 0 7 54 Left 0
SYMATTR InstName X6
SYMBOL D-FF 400 432 R0
WINDOW 0 7 54 Left 0
SYMATTR InstName X7
SYMBOL D-FF 576 432 R0
WINDOW 0 7 54 Left 0
SYMATTR InstName X8
SYMBOL INV -32 -48 R0
SYMATTR InstName X9
SYMBOL NAND3 48 -16 R0
SYMATTR InstName X10
SYMBOL NAND2 48 -448 R90
SYMATTR InstName X11
SYMBOL NAND2 224 -448 R90
SYMATTR InstName X12
SYMBOL NAND2 400 -448 R90
SYMATTR InstName X13
SYMBOL NAND2 576 -448 R90
SYMATTR InstName X14
SYMBOL SCHMITT 64 -544 R90
SYMATTR InstName X15
SYMBOL SCHMITT 240 -544 R90
SYMATTR InstName X16
SYMBOL SCHMITT 416 -544 R90
SYMATTR InstName X17
SYMBOL SCHMITT 592 -544 R90
SYMATTR InstName X18
SYMBOL NAND2 48 -224 R270
SYMATTR InstName X19
SYMBOL NAND2 224 -224 R270
SYMATTR InstName X20
SYMBOL NAND2 400 -224 R270
SYMATTR InstName X21
SYMBOL NAND2 576 -224 R270
SYMATTR InstName X22
SYMBOL INV 64 -144 R270
SYMATTR InstName X23
SYMBOL INV 240 -144 R270
SYMATTR InstName X24
SYMBOL INV 416 -144 R270
SYMATTR InstName X25
SYMBOL INV 592 -144 R270
SYMATTR InstName X26
SYMBOL SCHMITT -48 -352 R0
SYMATTR InstName X27
SYMBOL NAND2 48 320 R90
SYMATTR InstName X28
SYMBOL NAND2 224 320 R90
SYMATTR InstName X29
SYMBOL NAND2 400 320 R90
SYMATTR InstName X30
SYMBOL NAND2 576 320 R90
SYMATTR InstName X31
SYMBOL NAND2 576 544 R270
SYMATTR InstName X32
SYMBOL NAND2 400 544 R270
SYMATTR InstName X33
SYMBOL NAND2 224 544 R270
SYMATTR InstName X34
SYMBOL NAND2 48 544 R270
SYMATTR InstName X35
SYMBOL SCHMITT 64 224 R90
SYMATTR InstName X36
SYMBOL SCHMITT 240 224 R90
SYMATTR InstName X37
SYMBOL SCHMITT 416 224 R90
SYMATTR InstName X38
SYMBOL SCHMITT 592 224 R90
SYMATTR InstName X39
SYMBOL INV 64 624 R270
SYMATTR InstName X40
SYMBOL INV 240 624 R270
SYMATTR InstName X41
SYMBOL INV 416 624 R270
SYMATTR InstName X42
SYMBOL INV 592 624 R270
SYMATTR InstName X43
SYMBOL INV -32 96 R0
SYMATTR InstName X44
