Version 4
SHEET 1 2296 708
WIRE 64 -576 64 -592
WIRE 240 -576 240 -592
WIRE 416 -576 416 -592
WIRE 592 -576 592 -592
WIRE 64 -496 64 -512
WIRE 112 -496 64 -496
WIRE 240 -496 240 -512
WIRE 288 -496 240 -496
WIRE 416 -496 416 -512
WIRE 464 -496 416 -496
WIRE 592 -496 592 -512
WIRE 640 -496 592 -496
WIRE 64 -480 64 -496
WIRE 240 -480 240 -496
WIRE 416 -480 416 -496
WIRE 592 -480 592 -496
WIRE 48 -384 48 -400
WIRE 224 -384 224 -400
WIRE 400 -384 400 -400
WIRE 576 -384 576 -400
WIRE -80 -352 -96 -352
WIRE 0 -352 -16 -352
WIRE 176 -352 96 -352
WIRE 352 -352 272 -352
WIRE 528 -352 448 -352
WIRE 688 -352 624 -352
WIRE 0 -320 -16 -320
WIRE 176 -320 160 -320
WIRE 352 -320 336 -320
WIRE 528 -320 512 -320
WIRE 48 -272 48 -288
WIRE 224 -272 224 -288
WIRE 400 -272 400 -288
WIRE 576 -272 576 -288
WIRE 32 -176 32 -192
WIRE 32 -176 16 -176
WIRE 64 -176 64 -192
WIRE 208 -176 208 -192
WIRE 208 -176 192 -176
WIRE 240 -176 240 -192
WIRE 384 -176 384 -192
WIRE 384 -176 368 -176
WIRE 416 -176 416 -192
WIRE 560 -176 560 -192
WIRE 560 -176 544 -176
WIRE 592 -176 592 -192
WIRE 16 -144 16 -176
WIRE 192 -144 192 -176
WIRE 368 -144 368 -176
WIRE 544 -144 544 -176
WIRE 64 -96 64 -112
WIRE 112 -96 112 -496
WIRE 112 -96 64 -96
WIRE 240 -96 240 -112
WIRE 288 -96 288 -496
WIRE 288 -96 240 -96
WIRE 416 -96 416 -112
WIRE 464 -96 464 -496
WIRE 464 -96 416 -96
WIRE 592 -96 592 -112
WIRE 640 -96 640 -496
WIRE 640 -96 592 -96
WIRE -464 -32 -480 -32
WIRE -384 -32 -400 -32
WIRE -384 0 -480 0
WIRE -256 0 -304 0
WIRE -384 32 -480 32
WIRE -464 112 -480 112
WIRE -256 112 -400 112
WIRE 48 160 48 144
WIRE 224 160 224 144
WIRE 400 160 400 144
WIRE 576 160 576 144
WIRE 48 240 48 224
WIRE 96 240 48 240
WIRE 224 240 224 224
WIRE 272 240 224 240
WIRE 400 240 400 224
WIRE 448 240 400 240
WIRE 576 240 576 224
WIRE 624 240 576 240
WIRE 48 256 48 240
WIRE 224 256 224 240
WIRE 400 256 400 240
WIRE 576 256 576 240
WIRE 32 352 32 336
WIRE 208 352 208 336
WIRE 384 352 384 336
WIRE 560 352 560 336
WIRE -16 384 -80 384
WIRE 160 384 80 384
WIRE 336 384 256 384
WIRE 512 384 432 384
WIRE 640 384 608 384
WIRE -16 416 -32 416
WIRE 160 416 144 416
WIRE 336 416 320 416
WIRE 512 416 496 416
WIRE 640 416 608 416
WIRE 32 464 32 448
WIRE 208 464 208 448
WIRE 384 464 384 448
WIRE 560 464 560 448
WIRE 16 560 16 544
WIRE 16 560 0 560
WIRE 48 560 48 544
WIRE 192 560 192 544
WIRE 192 560 176 560
WIRE 224 560 224 544
WIRE 368 560 368 544
WIRE 368 560 352 560
WIRE 400 560 400 544
WIRE 544 560 544 544
WIRE 544 560 528 560
WIRE 576 560 576 544
WIRE 0 592 0 560
WIRE 176 592 176 560
WIRE 352 592 352 560
WIRE 528 592 528 560
WIRE 48 640 48 624
WIRE 96 640 96 240
WIRE 96 640 48 640
WIRE 224 640 224 624
WIRE 272 640 272 240
WIRE 272 640 224 640
WIRE 400 640 400 624
WIRE 448 640 448 240
WIRE 448 640 400 640
WIRE 576 640 576 624
WIRE 624 640 624 240
WIRE 624 640 576 640
FLAG -512 -544 PL_n
IOPIN -512 -544 In
FLAG -512 -496 CP
IOPIN -512 -496 In
FLAG -512 -448 D4
IOPIN -512 -448 In
FLAG -512 -400 D5
IOPIN -512 -400 In
FLAG -512 -352 D6
IOPIN -512 -352 In
FLAG -512 -304 D7
IOPIN -512 -304 In
FLAG -512 -256 Q7_n
IOPIN -512 -256 Out
FLAG -512 -208 GND
IOPIN -512 -208 BiDir
FLAG -368 -544 VCC
IOPIN -368 -544 BiDir
FLAG -368 -496 CE_n
IOPIN -368 -496 In
FLAG -368 -448 D3
IOPIN -368 -448 In
FLAG -368 -400 D2
IOPIN -368 -400 In
FLAG -368 -352 D1
IOPIN -368 -352 In
FLAG -368 -304 D0
IOPIN -368 -304 In
FLAG -368 -256 DS
IOPIN -368 -256 In
FLAG -368 -208 Q7
IOPIN -368 -208 Out
FLAG 688 -352 Q3
FLAG -80 384 Q3
FLAG -96 -352 DS
IOPIN -96 -352 In
FLAG 64 -592 D0
IOPIN 64 -592 In
FLAG 240 -592 D1
IOPIN 240 -592 In
FLAG 416 -592 D2
IOPIN 416 -592 In
FLAG 592 -592 D3
IOPIN 592 -592 In
FLAG 48 144 D4
IOPIN 48 144 In
FLAG 224 144 D5
IOPIN 224 144 In
FLAG 400 144 D6
IOPIN 400 144 In
FLAG 576 144 D7
IOPIN 576 144 In
FLAG 640 416 Q7_n
IOPIN 640 416 Out
FLAG 640 384 Q7
IOPIN 640 384 Out
FLAG -480 112 PL_n
IOPIN -480 112 In
FLAG -480 32 CP
IOPIN -480 32 In
FLAG -480 -32 CE_n
IOPIN -480 -32 In
FLAG -256 0 CLK
FLAG -16 -320 CLK
FLAG 160 -320 CLK
FLAG 336 -320 CLK
FLAG 512 -320 CLK
FLAG -32 416 CLK
FLAG 144 416 CLK
FLAG 320 416 CLK
FLAG 496 416 CLK
FLAG -480 0 PL_n
IOPIN -480 0 In
FLAG -256 112 PL
FLAG 0 592 PL
FLAG 176 592 PL
FLAG 352 592 PL
FLAG 528 592 PL
FLAG 544 256 PL
FLAG 368 256 PL
FLAG 192 256 PL
FLAG 16 256 PL
FLAG 32 -480 PL
FLAG 208 -480 PL
FLAG 384 -480 PL
FLAG 560 -480 PL
FLAG 16 -144 PL
FLAG 192 -144 PL
FLAG 368 -144 PL
FLAG 544 -144 PL
SYMBOL D-FF 48 -336 R0
WINDOW 0 7 54 Left 0
SYMATTR InstName X1
SYMBOL D-FF 224 -336 R0
WINDOW 0 7 54 Left 0
SYMATTR InstName X2
SYMBOL D-FF 400 -336 R0
WINDOW 0 7 54 Left 0
SYMATTR InstName X3
SYMBOL D-FF 576 -336 R0
WINDOW 0 7 54 Left 0
SYMATTR InstName X4
SYMBOL D-FF 32 400 R0
WINDOW 0 7 54 Left 0
SYMATTR InstName X5
SYMBOL D-FF 208 400 R0
WINDOW 0 7 54 Left 0
SYMATTR InstName X6
SYMBOL D-FF 384 400 R0
WINDOW 0 7 54 Left 0
SYMATTR InstName X7
SYMBOL D-FF 560 400 R0
WINDOW 0 7 54 Left 0
SYMATTR InstName X8
SYMBOL INV -432 -32 R0
SYMATTR InstName X9
SYMBOL NAND3 -352 0 R0
SYMATTR InstName X10
SYMBOL NAND2 48 -448 R90
SYMATTR InstName X11
SYMBOL NAND2 224 -448 R90
SYMATTR InstName X12
SYMBOL NAND2 400 -448 R90
SYMATTR InstName X13
SYMBOL NAND2 576 -448 R90
SYMATTR InstName X14
SYMBOL SCHMITT 64 -544 R90
SYMATTR InstName X15
SYMBOL SCHMITT 240 -544 R90
SYMATTR InstName X16
SYMBOL SCHMITT 416 -544 R90
SYMATTR InstName X17
SYMBOL SCHMITT 592 -544 R90
SYMATTR InstName X18
SYMBOL NAND2 48 -224 R270
SYMATTR InstName X19
SYMBOL NAND2 224 -224 R270
SYMATTR InstName X20
SYMBOL NAND2 400 -224 R270
SYMATTR InstName X21
SYMBOL NAND2 576 -224 R270
SYMATTR InstName X22
SYMBOL INV 64 -144 R270
SYMATTR InstName X23
SYMBOL INV 240 -144 R270
SYMATTR InstName X24
SYMBOL INV 416 -144 R270
SYMATTR InstName X25
SYMBOL INV 592 -144 R270
SYMATTR InstName X26
SYMBOL SCHMITT -48 -352 R0
SYMATTR InstName X27
SYMBOL NAND2 32 288 R90
SYMATTR InstName X28
SYMBOL NAND2 208 288 R90
SYMATTR InstName X29
SYMBOL NAND2 384 288 R90
SYMATTR InstName X30
SYMBOL NAND2 560 288 R90
SYMATTR InstName X31
SYMBOL NAND2 560 512 R270
SYMATTR InstName X32
SYMBOL NAND2 384 512 R270
SYMATTR InstName X33
SYMBOL NAND2 208 512 R270
SYMATTR InstName X34
SYMBOL NAND2 32 512 R270
SYMATTR InstName X35
SYMBOL SCHMITT 48 192 R90
SYMATTR InstName X36
SYMBOL SCHMITT 224 192 R90
SYMATTR InstName X37
SYMBOL SCHMITT 400 192 R90
SYMATTR InstName X38
SYMBOL SCHMITT 576 192 R90
SYMATTR InstName X39
SYMBOL INV 48 592 R270
SYMATTR InstName X40
SYMBOL INV 224 592 R270
SYMATTR InstName X41
SYMBOL INV 400 592 R270
SYMATTR InstName X42
SYMBOL INV 576 592 R270
SYMATTR InstName X43
SYMBOL INV -432 112 R0
SYMATTR InstName X44
