Version 4
SHEET 1 2296 680
FLAG -496 -272 PL_n
IOPIN -496 -272 In
FLAG -496 -224 CP
IOPIN -496 -224 In
FLAG -496 -176 D4
IOPIN -496 -176 In
FLAG -496 -128 D5
IOPIN -496 -128 In
FLAG -496 -80 D6
IOPIN -496 -80 In
FLAG -496 -32 D7
IOPIN -496 -32 In
FLAG -496 16 Q7_n
IOPIN -496 16 Out
FLAG -496 64 GND
IOPIN -496 64 BiDir
FLAG -272 -272 VCC
IOPIN -272 -272 BiDir
FLAG -272 -224 CE_n
IOPIN -272 -224 In
FLAG -272 -176 D3
IOPIN -272 -176 In
FLAG -272 -128 D2
IOPIN -272 -128 In
FLAG -272 -80 D1
IOPIN -272 -80 In
FLAG -272 -32 D0
IOPIN -272 -32 In
FLAG -272 16 DS
IOPIN -272 16 In
FLAG -272 64 Q7
IOPIN -272 64 Out
SYMBOL D-FF 128 -176 R0
SYMATTR InstName X1
SYMBOL D-FF 416 -176 R0
SYMATTR InstName X2
SYMBOL D-FF 704 -176 R0
SYMATTR InstName X3
SYMBOL D-FF 1008 -176 R0
SYMATTR InstName X4
SYMBOL D-FF 1312 -176 R0
SYMATTR InstName X5
SYMBOL D-FF 1616 -176 R0
SYMATTR InstName X6
SYMBOL D-FF 1936 -176 R0
SYMATTR InstName X7
SYMBOL D-FF 2240 -176 R0
SYMATTR InstName X8
SYMBOL MUX2 0 -192 R0
SYMATTR InstName X9
SYMBOL MUX2 272 -192 R0
SYMATTR InstName X10
SYMBOL MUX2 560 -192 R0
SYMATTR InstName X11
SYMBOL MUX2 848 -192 R0
SYMATTR InstName X12
SYMBOL MUX2 1152 -192 R0
SYMATTR InstName X13
SYMBOL MUX2 1456 -192 R0
SYMATTR InstName X14
SYMBOL MUX2 1760 -192 R0
SYMATTR InstName X15
SYMBOL MUX2 2080 -192 R0
SYMATTR InstName X16
