Version 4
SHEET 1 880 680
WIRE 96 -496 -32 -496
WIRE 432 -480 432 -496
WIRE 480 -480 432 -480
WIRE 432 -464 432 -480
WIRE 96 -416 96 -496
WIRE 144 -416 96 -416
WIRE 272 -416 192 -416
WIRE 384 -416 352 -416
WIRE 480 -416 480 -480
WIRE 480 -416 432 -416
WIRE 192 -352 192 -368
WIRE 272 -352 272 -416
WIRE 272 -352 192 -352
WIRE 192 -336 192 -352
WIRE 96 -304 96 -416
WIRE 352 -304 352 -416
WIRE 352 -304 96 -304
WIRE 432 -272 432 -288
WIRE 480 -272 432 -272
WIRE 432 -256 432 -272
WIRE -32 -208 -32 -496
WIRE -32 -208 -96 -208
WIRE 96 -208 96 -304
WIRE 144 -208 96 -208
WIRE 256 -208 192 -208
WIRE 352 -208 352 -304
WIRE 384 -208 352 -208
WIRE 480 -208 480 -272
WIRE 480 -208 432 -208
WIRE 192 -144 192 -160
WIRE 256 -144 256 -208
WIRE 256 -144 192 -144
WIRE 192 -128 192 -144
WIRE 96 -96 -96 -96
WIRE 432 -32 432 -48
WIRE 480 -32 432 -32
WIRE 432 -16 432 -32
WIRE 96 32 96 -96
WIRE 144 32 96 32
WIRE 272 32 192 32
WIRE 384 32 352 32
WIRE 480 32 480 -32
WIRE 480 32 432 32
WIRE 192 96 192 80
WIRE 272 96 272 32
WIRE 272 96 192 96
WIRE 192 112 192 96
WIRE 96 144 96 32
WIRE 352 144 352 32
WIRE 352 144 96 144
WIRE 432 176 432 160
WIRE 480 176 432 176
WIRE 432 192 432 176
WIRE 96 240 96 144
WIRE 144 240 96 240
WIRE 256 240 192 240
WIRE 352 240 352 144
WIRE 384 240 352 240
WIRE 480 240 480 176
WIRE 480 240 432 240
WIRE 192 304 192 288
WIRE 256 304 256 240
WIRE 256 304 192 304
WIRE 192 320 192 304
FLAG 192 112 0
FLAG 432 80 0
FLAG 192 320 0
FLAG 432 288 0
FLAG 192 192 vdd
FLAG 192 -16 vdd
FLAG 432 -48 vdd
FLAG 432 160 vdd
FLAG 192 -336 0
FLAG 432 -368 0
FLAG 192 -128 0
FLAG 432 -160 0
FLAG 192 -256 vdd
FLAG 192 -464 vdd
FLAG 432 -496 vdd
FLAG 432 -288 vdd
FLAG -96 -208 CK
IOPIN -96 -208 In
FLAG -96 -96 CK_n
IOPIN -96 -96 In
FLAG 0 0 vdd
FLAG 0 80 0
SYMBOL nmos_035 144 -16 R0
SYMATTR InstName M1
SYMATTR Value2 l=0.35u w={size*0.35u}
SYMATTR SpiceLine ""
SYMBOL nmos_035 144 192 R0
SYMATTR InstName M2
SYMATTR Value2 l=0.35u w={size*0.35u}
SYMATTR SpiceLine ""
SYMBOL pmos_035 384 192 R0
SYMATTR InstName M3
SYMATTR Value2 l=0.35u w={3.4*size*0.35u}
SYMATTR SpiceLine ""
SYMBOL pmos_035 384 -16 R0
SYMATTR InstName M4
SYMATTR Value2 l=0.35u w={3.4*size*0.35u}
SYMATTR SpiceLine ""
SYMBOL nmos_035 144 -464 R0
SYMATTR InstName M5
SYMATTR Value2 l=0.35u w={size*0.35u}
SYMATTR SpiceLine ""
SYMBOL nmos_035 144 -256 R0
SYMATTR InstName M6
SYMATTR Value2 l=0.35u w={size*0.35u}
SYMATTR SpiceLine ""
SYMBOL pmos_035 384 -256 R0
SYMATTR InstName M7
SYMATTR Value2 l=0.35u w={3.4*size*0.35u}
SYMATTR SpiceLine ""
SYMBOL pmos_035 384 -464 R0
SYMATTR InstName M8
SYMATTR Value2 l=0.35u w={3.4*size*0.35u}
SYMATTR SpiceLine ""
SYMBOL voltage 0 -16 R0
WINDOW 123 0 0 Left 0
WINDOW 39 0 0 Left 0
SYMATTR InstName V1
SYMATTR Value 3.3
TEXT -184 -168 Left 2 !.include ee457_035.lib\n.param size = 1
