Version 4
SHEET 1 880 680
WIRE 208 48 208 32
WIRE 256 48 208 48
WIRE 208 64 208 48
WIRE 160 112 144 112
WIRE 256 112 256 48
WIRE 256 112 208 112
WIRE 144 160 144 112
WIRE 144 160 112 160
WIRE 208 176 208 160
WIRE 144 224 144 160
WIRE 160 224 144 224
WIRE 256 224 208 224
WIRE 208 288 208 272
WIRE 256 288 256 224
WIRE 256 288 208 288
WIRE 208 304 208 288
FLAG -32 176 0
FLAG 112 160 vdd
FLAG 208 32 vdd
FLAG 208 304 0
FLAG -32 96 vdd
SYMBOL nmos_035 160 176 R0
SYMATTR InstName M1
SYMATTR Value2 l=0.35u w=0.35u
SYMATTR SpiceLine ""
SYMBOL pmos_035 160 64 R0
SYMATTR InstName M2
SYMATTR Value2 l=0.35u w={3.7 * 0.35u}
SYMATTR SpiceLine ""
SYMBOL voltage -32 80 R0
WINDOW 123 0 0 Left 0
WINDOW 39 0 0 Left 0
SYMATTR InstName V1
SYMATTR Value 3.3
TEXT -80 8 Left 2 !.include ee457_035.lib\n.op
