Version 4
SHEET 1 880 680
WIRE 160 112 128 112
WIRE 272 112 224 112
WIRE 128 144 128 112
WIRE 128 144 96 144
WIRE 128 176 128 144
WIRE 160 176 128 176
WIRE 272 176 224 176
WIRE -64 208 -64 80
FLAG -64 288 0
FLAG -64 80 CLK
FLAG -176 288 0
FLAG -176 208 vdd
FLAG 192 128 0
FLAG 192 96 vdd
FLAG 96 144 CLK
FLAG 272 112 CK
FLAG 272 176 CK_n
DATAFLAG 304 112 ""
SYMBOL voltage -64 192 R0
WINDOW 123 0 0 Left 0
WINDOW 39 0 0 Left 0
SYMATTR InstName V1
SYMATTR Value PULSE(0 3.3 0 1n 1n 10n 20n 1)
SYMBOL TG 192 112 R0
SYMATTR InstName X1
SYMBOL voltage -176 192 R0
WINDOW 123 0 0 Left 0
WINDOW 39 0 0 Left 0
SYMATTR InstName V2
SYMATTR Value 3.3
SYMBOL INV 192 176 R0
SYMATTR InstName X2
TEXT 8 72 Left 2 !.tran 20n
