Version 4
SHEET 1 880 1060
WIRE 160 112 128 112
WIRE 256 112 224 112
WIRE 368 112 256 112
WIRE 368 128 368 112
WIRE 480 128 368 128
WIRE 128 144 128 112
WIRE 128 144 96 144
WIRE 480 160 368 160
WIRE 128 176 128 144
WIRE 160 176 128 176
WIRE 256 176 224 176
WIRE 368 176 368 160
WIRE 368 176 256 176
WIRE -272 208 -272 80
WIRE 128 240 128 176
WIRE 480 240 128 240
FLAG -272 288 0
FLAG -272 80 CLK
FLAG -384 288 0
FLAG -384 208 vdd
FLAG 192 128 0
FLAG 192 96 vdd
FLAG 96 144 CLK
FLAG 256 112 CK
FLAG 256 176 CK_n
SYMBOL voltage -272 192 R0
WINDOW 123 0 0 Left 0
WINDOW 39 0 0 Left 0
SYMATTR InstName V1
SYMATTR Value PULSE(0 3.3 0 1n 1n 10n 20n 1)
SYMBOL TG 192 112 R0
SYMATTR SpiceLine size = {sz}
SYMATTR InstName X1
SYMBOL voltage -384 192 R0
WINDOW 123 0 0 Left 0
WINDOW 39 0 0 Left 0
SYMATTR InstName V2
SYMATTR Value 3.3
SYMBOL INV 192 176 R0
SYMATTR InstName X2
SYMATTR SpiceLine size = {sz}
SYMBOL Test-DFF-CLK-Load 528 144 R0
SYMATTR InstName X3
SYMATTR SpiceLine size = 50
SYMBOL Test-DFF-CLK-Load 528 256 R0
SYMATTR InstName X4
SYMATTR SpiceLine size = 50
TEXT -64 -112 Left 2 !.include ee457_035.lib\n.tran 20n\n.step param sz list 1 5 100
