Version 4
SHEET 1 880 680
WIRE 272 112 224 112
WIRE 384 112 272 112
WIRE -64 208 -64 80
WIRE 96 240 48 240
FLAG -64 288 0
FLAG -64 80 CLK
FLAG 48 240 CLK
FLAG 160 240 CLK_n
FLAG 192 128 CLK_n
FLAG 192 96 CLK
FLAG -176 288 0
FLAG -176 208 I
FLAG 160 112 I
FLAG 272 192 0
FLAG 384 176 0
SYMBOL voltage -64 192 R0
WINDOW 123 0 0 Left 0
WINDOW 39 0 0 Left 0
SYMATTR InstName V1
SYMATTR Value PULSE(0 3.3 0 1n 1n 300n 600n 5)
SYMBOL TG 192 112 R0
SYMATTR SpiceLine size = 5
SYMATTR InstName X1
SYMBOL INV 128 240 R0
WINDOW 39 -16 12 Left 0
SYMATTR InstName X2
SYMATTR SpiceLine size = 1
SYMBOL voltage -176 192 R0
WINDOW 123 0 0 Left 0
WINDOW 39 0 0 Left 0
SYMATTR InstName V2
SYMATTR Value 3.3
SYMBOL res 256 96 R0
SYMATTR InstName R1
SYMATTR Value 31k
SYMBOL cap 368 112 R0
SYMATTR InstName C1
SYMATTR Value 1p
TEXT 8 72 Left 2 !.tran 3u
