Version 4
SHEET 1 880 680
WIRE 112 240 32 240
WIRE 320 272 240 272
FLAG 112 144 0
FLAG 112 208 0
FLAG 240 176 0
FLAG 240 112 0
FLAG -96 256 0
FLAG -96 176 vdd
FLAG 240 48 vdd
FLAG 240 144 vdd
FLAG 240 208 vdd
FLAG 112 176 vdd
FLAG 112 112 vdd
FLAG 240 240 vdd
FLAG 320 272 Q
FLAG 32 240 Q_n
FLAG 112 272 0
FLAG -384 96 0
FLAG -384 -64 0
FLAG -384 16 CP
FLAG 112 80 CP
FLAG -384 -144 PL_n
FLAG 112 48 PL_n
SYMBOL SR 176 160 R0
SYMATTR InstName X1
SYMBOL voltage -96 160 R0
WINDOW 123 0 0 Left 0
WINDOW 39 0 0 Left 0
SYMATTR InstName V1
SYMATTR Value 3.3
SYMBOL voltage -384 0 R0
WINDOW 123 0 0 Left 0
WINDOW 39 0 0 Left 0
SYMATTR InstName V2
SYMATTR Value PULSE(0 3.3 0 1n 1n 5n 10n)
SYMBOL voltage -384 -160 R0
WINDOW 123 0 0 Left 0
WINDOW 39 0 0 Left 0
SYMATTR InstName V3
SYMATTR Value PULSE(3.3 0 5n 1n 1n 20n)
TEXT -256 -184 Left 2 !.tran 0.5u
