Version 4
SHEET 1 880 1060
WIRE -144 112 -176 112
WIRE -48 112 -80 112
WIRE 64 112 -48 112
WIRE 64 128 64 112
WIRE 176 128 64 128
WIRE -176 144 -176 112
WIRE -176 144 -208 144
WIRE 176 160 64 160
WIRE -176 176 -176 144
WIRE -144 176 -176 176
WIRE -48 176 -80 176
WIRE 64 176 64 160
WIRE 64 176 -48 176
WIRE -272 208 -272 80
WIRE -176 240 -176 176
WIRE 176 240 -176 240
FLAG -272 288 0
FLAG -272 80 CLK
FLAG -384 288 0
FLAG -384 208 vdd
FLAG -112 128 0
FLAG -112 96 vdd
FLAG -208 144 CLK
FLAG -48 112 CK
FLAG -48 176 CK_n
SYMBOL voltage -272 192 R0
WINDOW 123 0 0 Left 0
WINDOW 39 0 0 Left 0
SYMATTR InstName V1
SYMATTR Value PULSE(0 3.3 0 1n 1n 10n 20n 1)
SYMBOL TG -112 112 R0
SYMATTR SpiceLine size = {sz}
SYMATTR InstName X1
SYMBOL voltage -384 192 R0
WINDOW 123 0 0 Left 0
WINDOW 39 0 0 Left 0
SYMATTR InstName V2
SYMATTR Value 3.3
SYMBOL INV -112 176 R0
SYMATTR InstName X2
SYMATTR SpiceLine size = {sz}
SYMBOL Test-DFF-CLK-Load 224 144 R0
SYMATTR InstName X3
SYMATTR SpiceLine size = 50
SYMBOL Test-DFF-CLK-Load 224 256 R0
SYMATTR InstName X4
SYMATTR SpiceLine size = 50
TEXT -64 8 Left 2 !.include ee457_035.lib\n.tran 20n\n.step param sz list 1 5 100
