Version 4
SHEET 1 880 680
WIRE 288 96 256 96
WIRE 288 192 256 192
WIRE -64 208 -64 80
FLAG 192 96 I
FLAG 192 192 I
FLAG -64 80 I
FLAG -64 288 0
FLAG 288 256 0
FLAG 288 160 0
SYMBOL voltage -64 192 R0
WINDOW 123 0 0 Left 0
WINDOW 39 0 0 Left 0
SYMATTR InstName V1
SYMATTR Value PULSE(0 3.3 0 1n 1n 300p 600p 1)
SYMBOL cap 272 96 R0
SYMATTR InstName C1
SYMATTR Value 3p
SYMBOL cap 272 192 R0
SYMATTR InstName C2
SYMATTR Value 3p
SYMBOL INV 224 192 R0
WINDOW 0 0 0 Left 0
SYMATTR InstName X1
SYMATTR SpiceLine size = 300
SYMBOL INV 224 96 R0
WINDOW 0 0 0 Left 0
SYMATTR InstName X2
SYMATTR SpiceLine size = 1
TEXT 8 72 Left 2 !.tran 600p
