Version 4
SHEET 1 880 680
WIRE 320 112 144 112
WIRE 384 112 320 112
WIRE 448 112 384 112
WIRE 192 160 144 160
WIRE 384 160 384 112
WIRE 448 160 384 160
WIRE 192 208 192 160
WIRE 192 208 144 208
WIRE 320 208 192 208
WIRE 448 208 320 208
FLAG 96 160 CLK
IOPIN 96 160 In
FLAG 496 160 CLK_n
IOPIN 496 160 In
FLAG 320 112 I
IOPIN 320 112 In
FLAG 320 208 O
IOPIN 320 208 Out
SYMBOL nmos_035 96 112 R0
SYMATTR InstName M1
SYMATTR Value2 l=0.35u w={size*0.35u}
SYMATTR SpiceLine ""
SYMBOL pmos_035 496 112 M0
SYMATTR InstName M2
SYMATTR Value2 l=0.35u w={3.4*size*0.35u}
SYMATTR SpiceLine ""
TEXT 16 320 Left 2 !.include ee457_035.lib\n.param size=1
