Version 4
SHEET 1 880 680
WIRE 320 112 144 112
WIRE 448 112 320 112
WIRE 192 160 144 160
WIRE 448 160 384 160
WIRE 320 208 144 208
WIRE 448 208 320 208
FLAG 96 160 CLK
IOPIN 96 160 In
FLAG 496 160 CLK_n
IOPIN 496 160 In
FLAG 320 112 I
IOPIN 320 112 In
FLAG 320 208 O
IOPIN 320 208 Out
FLAG -32 256 0
FLAG -32 176 vdd
FLAG 384 160 vdd
FLAG 192 160 0
SYMBOL nmos_035 96 112 R0
SYMATTR InstName M1
SYMATTR Value2 l=0.35u w={size*0.35u}
SYMATTR SpiceLine ""
SYMBOL pmos_035 496 112 M0
SYMATTR InstName M2
SYMATTR Value2 l=0.35u w={3.7*size*0.35u}
SYMATTR SpiceLine ""
SYMBOL voltage -32 160 R0
WINDOW 123 0 0 Left 0
WINDOW 39 0 0 Left 0
SYMATTR InstName V1
SYMATTR Value 3.3
TEXT 16 320 Left 2 !.include ee457_035.lib\n.param size=1
